  18
  -61.770028719999999       0.61355644398552944
 F         -0.9542954132       -1.5929412780       -1.0353875710
 F         -0.4291375487       -1.3259943472        1.0358003371
 F          1.6815491429       -1.8854228323       -0.5296591851
 F          1.2914392989       -0.2013565727       -1.8404919248
 F         -0.7043381713        1.2839700661        0.9384334116
 F         -0.9979262125        1.3240783742       -1.2165413315
 F          1.7781542651        1.5502343724        0.1103945525
 F          3.2899590264        0.0255589788        0.2716444630
 F          1.6323398896        0.0510699121        1.6480349953
 O         -3.4389187196        0.4206867154       -0.7973134319
 O         -2.8800533709       -0.2437596734        1.2723079454
 C         -0.3379632854       -0.7482175548       -0.2062821744
 C          1.1762495703       -0.6452357964       -0.5868141259
 C         -1.1553251002        0.5771326610       -0.1343990027
 C          2.0078240712        0.2757988245        0.3747767142
 C         -2.6392915983        0.2069689622        0.1779556021
 H         -4.3792718896        0.2053462843       -0.6288211634
 Na        -1.5858079591       -0.8047713170        2.7512440825
  18
  -61.768706610000002       0.15144496343395106
 F         -1.1163363912       -1.6479195006       -0.4271230025
 F         -0.2565260534       -1.1350828812        1.4918029868
 F          1.5773615832       -1.8463825271       -0.3826247071
 F          0.7285868287       -0.4574903514       -1.8053638867
 F         -0.7627646950        1.4743418399        1.1271315679
 F         -1.0852011973        1.1975011602       -1.0051731105
 F          1.5404547616        1.6512537983       -0.4077542299
 F          3.1850308184        0.2636379978       -0.4702211682
 F          2.0239712705        0.4788216457        1.3329801009
 O         -3.1511552279        0.3805877041        1.5810539828
 O         -3.3304225152       -0.0524419072       -0.6136220786
 C         -0.3809068322       -0.7061007968        0.2408166844
 C          0.9970936357       -0.6506809843       -0.4905704941
 C         -1.2125972461        0.6163176112        0.2212452334
 C          1.9776306948        0.4664426680        0.0091969968
 C         -2.7260440345        0.2796437167        0.3782337383
 H         -4.1011253263        0.1825674425        1.7124798421
 Na        -2.6972939638       -0.4798825545       -2.4963031566
  18
  -61.768618660000001       0.13798625033984654
 F         -1.0550478668       -1.4955296507       -0.6792230109
 F         -0.2210651357       -1.3027898861        1.3114129523
 F          1.6599300246       -1.7250868713       -0.6001518844
 F          0.8320242944       -0.1464121732       -1.8277438701
 F         -0.6982672235        1.3696373963        1.3048410315
 F         -1.0108781063        1.3674243131       -0.8482650161
 F          1.5927924683        1.7404747762       -0.1769493057
 F          3.2560718455        0.3829938768       -0.3425331264
 F          2.0341646894        0.3788194940        1.4332859055
 O         -3.0669242353        0.0408413945        1.5787441688
 O         -3.2825470658        0.2779257978       -0.6435600735
 C         -0.3200870406       -0.6865388025        0.1390423762
 C          1.0747756492       -0.5311254445       -0.5480080739
 C         -1.1434361258        0.6285869207        0.3027492101
 C          2.0330800597        0.5170617664        0.1170464826
 C         -2.6631872805        0.2906485775        0.3899103132
 H         -4.0191096817       -0.1730860181        1.6612440616
 Na        -2.2794693573        0.6149219848       -2.4035000919
  18
  -61.768285640000002        9.7004173064788687E-002
 F         -0.9380191215       -1.7518868646       -0.4097627458
 F         -0.1933423227       -1.1188792951        1.5204401500
 F          1.7418389571       -1.9609853501       -0.1457552664
 F          0.9916262118       -0.7222564675       -1.7473801992
 F         -0.5469485718        1.5396588932        0.7952360538
 F         -1.0333092126        0.9066146528       -1.2296423417
 F          1.7759873119        1.5065543725       -0.5743929776
 F          3.3855972086        0.1013034888       -0.3088917670
 F          2.0767448011        0.5619951337        1.3394845047
 O         -2.9325828648        0.7631853700        1.5395762040
 O         -3.1918454617       -0.4162902928       -0.3506367201
 C         -0.2332161624       -0.7620315396        0.2424844451
 C          1.1840798970       -0.7769084106       -0.4112161098
 C         -1.0643950121        0.5482337282        0.0818330103
 C          2.1469343274        0.3829290154        0.0273035246
 C         -2.5566678835        0.2524408243        0.4284078411
 H         -3.8700865539        0.6115624102        1.7781441262
 Na        -2.4652698592       -1.5266754859       -1.8940354628
  18
  -61.759327360000000        7.4105420907289070E-006
 F         -0.7599170025       -1.1574679568       -1.4816649890
 F         -0.2306326351       -1.8044063145        0.5186394534
 F          1.9211617939       -1.3983877587       -1.1141240649
 F          1.2789647737        0.6266670663       -1.5451816273
 F         -0.7183721241        0.6236791452        1.5435134734
 F         -0.8086596669        1.5525250910       -0.3892123522
 F          1.6798920436        1.5195978833        0.7844325747
 F          3.3524076668        0.2329542025        0.3785223766
 F          1.8207320328       -0.4074427475        1.7438178492
 O         -2.9664703395       -1.0792858447        0.3773758689
 O         -3.3589757316        1.1148223392        0.0188922628
 C         -0.2188531264       -0.7640115358       -0.3195651753
 C          1.2717482149       -0.3563557957       -0.6067611399
 C         -1.0917826091        0.3799444650        0.2710360469
 C          2.0658659988        0.2118965659        0.6152097607
 C         -2.6674286362        0.1704718520        0.1977567969
 H         -3.9255051919       -1.2653807574        0.3663208997
 Na         0.4247622657        3.0768639217        0.1565797099
  18
  -61.756343549999997        3.1519973658815740E-007
 F         -0.6977550786       -1.4877856045       -1.3161231241
 F         -0.2759464635       -1.4461887480        0.8042134305
 F          1.9241746984       -1.7775107152       -0.6916941724
 F          1.5340862676        0.0153057921       -1.8492445012
 F         -0.6803323277        1.0200475469        1.1171339450
 F         -0.6049626199        1.5237231123       -0.9906624927
 F          1.8208226120        1.5642585434        0.3723784890
 F          3.4333789896        0.1469321708        0.3170241533
 F          1.7858306759       -0.1295415153        1.6750231949
 O         -2.9309503050       -0.1824076410        0.9241136966
 O         -3.1675389766        0.4546979827       -1.2270923587
 C         -0.1597954012       -0.7404638575       -0.3567333605
 C          1.3704700484       -0.5579678437       -0.6558262018
 C         -0.9855689328        0.5654880592       -0.1592377939
 C          2.1420930198        0.2799187746        0.4191297204
 C         -2.5386215058        0.2777713685       -0.2468828573
 H         -3.8839323226       -0.3945468413        0.9278145810
 Na         0.1564699563        0.4683998940        2.8887864868
  18
  -61.756030500000001        2.2631744263710654E-007
 F         -0.8651103681       -1.5112113936       -1.2482754643
 F         -0.3892532206       -1.6955043338        0.8616956516
 F          1.7819877804       -1.5898770666       -0.8609435215
 F          1.1205893208        0.3420899811       -1.5918853003
 F         -0.8717149078        0.9660745829        1.2653406894
 F         -1.1339029723        1.3165033390       -0.8246174038
 F          1.5629419684        1.5899590087        0.5247123134
 F          3.1905544317        0.1801491576        0.4522947891
 F          1.5654320031       -0.1198976923        1.8256554660
 O         -3.4762618837        1.1168910654        0.3977543983
 O         -3.2396841068       -1.1224695356        0.2694350529
 C         -0.3696547927       -0.8661758183       -0.1874827940
 C          1.1204909318       -0.4888221353       -0.5212820011
 C         -1.2890004862        0.3495289237        0.1245053772
 C          1.8987801297        0.2617921342        0.6111777968
 C         -2.8317095221       -0.0169722735        0.2704544285
 H         -4.4394706966        0.9898954942        0.4976290485
 Na        -0.0886182654        2.8157334943        0.2288832044
  18
  -61.755987789999999        2.1631661086045583E-007
 F         -0.9280934806       -1.5501084420       -1.2084219365
 F         -0.4937449391       -1.4451786141        0.9061730602
 F          1.6927391577       -1.8069818591       -0.6598077621
 F          1.2818926103        0.0005055250       -1.7873916173
 F         -0.8965690953        1.0359895974        1.1444532005
 F         -0.8863429845        1.4629093116       -0.9834361522
 F          1.5822081568        1.5227022065        0.4411974247
 F          3.2197444724        0.1319528866        0.3211662949
 F          1.6147785152       -0.1875106920        1.7226509043
 O         -3.1435067401       -0.1271721660        1.0867246214
 O         -3.4193218038        0.2682114533       -1.1150558980
 C         -0.3831365427       -0.7726032883       -0.2771055766
 C          1.1416788371       -0.5886284475       -0.5976803744
 C         -1.2213417457        0.5301912176       -0.1070146148
 C          1.9284186020        0.2412992964        0.4718168410
 C         -2.7658428336        0.2117204870       -0.1366393368
 H         -4.0961543394       -0.3443017785        1.1058437784
 Na        -0.5194695200        0.4304693674        3.0344138549
  18
  -61.750695870000001        8.0000338500918006E-010
 F         -1.1401308688       -1.6476133661       -0.7821711814
 F         -0.7103728509       -1.0932715123        1.2486350864
 F          1.4053195574       -1.9363128572        0.1283188335
 F          1.2165165895       -0.6805351936       -1.6364452674
 F         -0.9559038593        1.4305618692        0.8470010730
 F         -0.7451707232        1.3027776662       -1.3069530241
 F          1.6799720950        1.5659314309        0.0577009967
 F          3.1140459477       -0.0230539721        0.3100939240
 F          1.5520023940        0.2209751270        1.7487546681
 O         -3.3072612750       -0.0769334765        0.6600004021
 O         -3.4236267915        0.9960164144       -1.3193801490
 C         -0.5702511052       -0.6882817430       -0.0469048962
 C          0.9621563528       -0.7060449986       -0.3421068822
 C         -1.2720068710        0.6917014918       -0.2394695358
 C          1.8427433324        0.3288017766        0.4339538087
 C         -2.8422374370        0.5631816185       -0.3880138868
 H         -4.2807189827       -0.1435265129        0.6522336776
 Na         1.3445333340       -2.5493956817        2.0916511111
