  18
  -61.770693039999998       0.76193349270276001
 F         -0.5137740044       -1.4679029167        0.3116934277
 F         -0.1098610119        0.2909410968        1.4811619520
 F          1.3395752877       -0.9511070019       -1.4554473596
 F          1.4812126709        1.1429975907       -0.9165256236
 F         -1.1438300113        1.9178991615       -0.2210238982
 F         -1.2157145339        0.4766638576       -1.8458925304
 F          2.5155935002        0.6205028768        1.4469960451
 F          3.5055208998       -0.7364854110        0.0925569184
 F          1.9392354329       -1.4441529217        1.3989772835
 O         -3.5895617270        0.0983356101       -0.8337504573
 O         -2.7535577870       -0.0834588668        1.2369599954
 C         -0.1571641884       -0.1776562623        0.1973519530
 C          1.2671250563       -0.0868341122       -0.4403961109
 C         -1.2907648129        0.6120400209       -0.5267496274
 C          2.3580769566       -0.4231292182        0.6401802657
 C         -2.6700854347        0.1501868641        0.0529736513
 H         -4.4785621862       -0.1547770622       -0.5114885937
 Na        -1.5428433326       -0.2684918960        2.8534642331
  18
  -61.768710249999998        9.3473794306575000E-002
 F         -0.9414815018       -1.6818525258       -0.4112185536
 F         -0.1106989682       -1.2455142734        1.5391198074
 F          1.7188543627       -2.1004540249       -0.2797831340
 F          1.0373079343       -0.6390085485       -1.7191298719
 F         -0.4088369523        1.3860261460        1.1931918462
 F         -0.6339749371        1.1707125819       -0.9582325104
 F          1.9682258741        1.3906056010       -0.2596446446
 F          3.4972190869       -0.1234214367       -0.3195448464
 F          2.3210126562        0.1516658842        1.4664077424
 O         -2.9038834304        0.4934121470        1.4904886881
 O         -2.9888899040        0.0993231170       -0.7170819410
 C         -0.1568478616       -0.8038764135        0.2875555323
 C          1.2450475782       -0.8597335892       -0.3967489972
 C         -0.8763604593        0.5826038945        0.2473932126
 C          2.3006793147        0.1670904966        0.1422542283
 C         -2.4188104318        0.3692446756        0.3129972925
 H         -3.8732190343        0.3752795377        1.5640694918
 Na        -2.2689849314       -0.3653145717       -2.5618421725
  18
  -61.768618660000001        8.4839484767381221E-002
 F         -1.1288169745       -1.1185021867       -1.1339140542
 F         -0.4233439395       -1.5969294727        0.8582514142
 F          1.5442615473       -1.6379594509       -1.0118808541
 F          0.9428308189        0.3046776834       -1.7528714175
 F         -0.6684176680        0.9971028641        1.6202142983
 F         -0.8279984709        1.6504806948       -0.4488969097
 F          1.7444295522        1.5444180845        0.4115353686
 F          3.2929133132        0.1301007499       -0.0769064192
 F          1.9533441376       -0.2628818945        1.5655675033
 O         -3.1554720430       -0.1042001854        1.3899949101
 O         -3.1933351737        0.7870612357       -0.6704808188
 C         -0.3866312265       -0.6608441737       -0.0832480268
 C          1.0612325569       -0.4568734204       -0.6345365037
 C         -1.1038580588        0.6276422234        0.4263089156
 C          2.0566191838        0.2499073362        0.3498446566
 C         -2.6493091918        0.4364596315        0.3458615289
 H         -4.1259058523       -0.2341648793        1.3655600391
 Na        -2.0439915086        1.5146979189       -2.2088549460
  18
  -61.768287319999999        5.9748182856545866E-002
 F         -0.9766116003       -1.7406458981       -0.1685141373
 F         -0.2362095866       -0.9133742415        1.6881534908
 F          1.6764032469       -2.0884739010        0.2119100171
 F          1.0513645836       -1.0279233049       -1.5623961818
 F         -0.3832558828        1.6467718028        0.6156732688
 F         -0.8689276522        0.7873512734       -1.3245346375
 F          1.9554032143        1.2840757734       -0.6620106647
 F          3.4608431466       -0.1765410656       -0.1762890840
 F          2.1553952928        0.5762549210        1.3644395689
 O         -2.8355492408        1.1546837684        1.3695542153
 O         -3.1337301183       -0.2678040383       -0.3387442735
 C         -0.2201099729       -0.7228430750        0.3745926051
 C          1.2077978000       -0.9167883898       -0.2250338629
 C         -0.9536250308        0.6074368131        0.0204816756
 C          2.2377230330        0.2254837319        0.0881325612
 C         -2.4705199395        0.4632442106        0.3567374262
 H         -3.7869606393        1.1020974317        1.5949129000
 Na        -2.4590435733       -1.6273097153       -1.6974712759
  18
  -61.759332039999997        4.5789190584956428E-006
 F         -0.6180142043       -0.5127619171       -1.8792279915
 F         -0.2603369590       -1.8992810054       -0.2517569215
 F          2.0170134625       -1.0324735925       -1.4894982947
 F          1.4812536516        1.0385160720       -1.1387783545
 F         -0.7448951531       -0.0237942627        1.5944131213
 F         -0.6501856077        1.5782117027        0.1700323041
 F          1.7404303293        0.9457397984        1.3726434253
 F          3.3922979958       -0.1876957233        0.5937909555
 F          1.7417593058       -1.2063163693        1.5207898854
 O         -2.9518469369       -1.0117970822       -0.2539522767
 O         -3.2371230888        1.1812284487        0.1988931435
 C         -0.1506992356       -0.6214722642       -0.6270100661
 C          1.3701545660       -0.2265274094       -0.6545845683
 C         -1.0253498816        0.2626833758        0.3072124418
 C          2.0919517509       -0.2192537459        0.7331572380
 C         -2.5957987724        0.1955151810        0.0610664619
 H         -3.9123065919       -1.1200363740       -0.3961303690
 Na         0.5929937161        2.6963052795        1.3279585934
  18
  -61.756343479999998        1.9378309380050096E-007
 F         -0.7156139952       -1.3178642354       -1.4777176712
 F         -0.3864186802       -1.4967325422        0.6518617539
 F          1.8574071667       -1.8110110132       -0.7815701594
 F          1.6130919527        0.1004980598       -1.7779272857
 F         -0.6748568311        0.9486855641        1.1814860529
 F         -0.4801101756        1.6405321007       -0.8643845246
 F          1.8818223917        1.4181889296        0.5903023653
 F          3.4189908908       -0.0762359436        0.4636995163
 F          1.7007912196       -0.3844522604        1.7237801051
 O         -2.9744888028       -0.1023452382        0.7872432653
 O         -3.0820479496        0.7435882740       -1.3013976822
 C         -0.1823133511       -0.6940836844       -0.4313871304
 C          1.3671258326       -0.5708833788       -0.6516894881
 C         -0.9466616119        0.6322511398       -0.1432436662
 C          2.1331661005        0.1190344435        0.5273711462
 C         -2.5072261929        0.4415732995       -0.3185320131
 H         -3.9364813743       -0.2600606012        0.7334830089
 Na         0.0527627077        0.1891604659        2.9241497836
  18
  -61.756030660000000        1.3917260843452063E-007
 F         -0.8372332621       -1.1449457680       -1.6058065316
 F         -0.4882539977       -1.8304804915        0.4241047315
 F          1.7799800748       -1.4224997857       -1.1193058043
 F          1.2194351400        0.6520984888       -1.4121872903
 F         -0.9131984741        0.6847022265        1.4111479569
 F         -1.0451398274        1.5177077674       -0.5505412927
 F          1.5772112584        1.3584554596        0.9553362823
 F          3.1634534178       -0.0642112037        0.6365820944
 F          1.4541878552       -0.6037393101        1.8217278999
 O         -3.4582117150        1.1412977245        0.4768155527
 O         -3.2818464763       -1.0163781211       -0.1559960228
 C         -0.3840209790       -0.7832585620       -0.4013649667
 C          1.1333680080       -0.4025383741       -0.5654585376
 C         -1.2829144067        0.3656173076        0.1394132560
 C          1.8677149159        0.0331482164        0.7469825053
 C         -2.8417017329        0.0409279522        0.1213043027
 H         -4.4289161125        1.0356077977        0.4975946851
 Na        -0.0176681114        2.6890947306        0.8718529112
  18
  -61.755987789999999        1.3300013419328061E-007
 F         -0.9622083296       -1.3856664530       -1.3705740416
 F         -0.6114090975       -1.4840576654        0.7597872705
 F          1.6148833226       -1.8427851782       -0.7497936602
 F          1.3534887968        0.0739273313       -1.7322074107
 F         -0.8841138855        0.9880011395        1.1954587787
 F         -0.7610623360        1.5901314979       -0.8860248114
 F          1.6452713849        1.3837459805        0.6285358385
 F          3.2058473215       -0.0868971893        0.4498745000
 F          1.5283296847       -0.4266067160        1.7585593078
 O         -3.1883426245       -0.0307146625        0.9551376963
 O         -3.3493136953        0.5632264605       -1.2131705000
 C         -0.4139198758       -0.7225787034       -0.3564061832
 C          1.1308737787       -0.6033283353       -0.6035272646
 C         -1.1841500362        0.6088953111       -0.1059778651
 C          1.9175171551        0.0859799447        0.5616380224
 C         -2.7414857329        0.3863338524       -0.2198031862
 H         -4.1516291968       -0.1917078005        0.9203792227
 Na        -0.6208534920        0.2051089235        3.0389833958
  18
  -61.750695810000003        4.9184296019394364E-010
 F         -1.2233601300       -1.6288949726       -0.6888186604
 F         -0.8096249480       -0.9471129661        1.3062506992
 F          1.2748602902       -2.0034450208        0.3166158563
 F          1.2108812113       -0.8791398979       -1.5431857561
 F         -0.8832080000        1.5484121261        0.7083747192
 F         -0.6268054628        1.2423096750       -1.4225962308
 F          1.7751541247        1.4589599151       -0.0113634008
 F          3.0976390177       -0.1914843514        0.4036571151
 F          1.5188809343        0.2598923501        1.7723265190
 O         -3.3204580554        0.1742048142        0.5624407539
 O         -3.3187977215        1.1069331605       -1.4899184141
 C         -0.6115999338       -0.6528071302       -0.0114892936
 C          0.9233430330       -0.7883197441       -0.2587429247
 C         -1.2184778819        0.7490621601       -0.3284445473
 C          1.8488284974        0.2470551297        0.4624247298
 C         -2.7893136042        0.7069795401       -0.5139663008
 H         -4.2956612310        0.1676340723        0.5302560845
 Na         1.1209420745       -2.4582434053        2.3178282391
