  18
  -61.770030859999999       0.61381439311970809
 F         -0.9518020839       -1.5823361450       -1.0555921994
 F         -0.4369211014       -1.3339363464        1.0204465221
 F          1.6805058686       -1.8827204223       -0.5419784604
 F          1.3002968893       -0.1834783276       -1.8358418874
 F         -0.7048244989        1.2780584210        0.9427687354
 F         -0.9945098079        1.3357950280       -1.2120787160
 F          1.7824980605        1.5454993818        0.1346747622
 F          3.2881178135        0.0143880216        0.2900787633
 F          1.6225368605        0.0316650327        1.6569701711
 O         -3.4364303706        0.4302239199       -0.8065530990
 O         -2.8842646426       -0.2471766949        1.2611760602
 C         -0.3386921295       -0.7455502773       -0.2164043267
 C          1.1778139055       -0.6412617680       -0.5879484020
 C         -1.1546796273        0.5805179424       -0.1363612601
 C          2.0060941332        0.2676647284        0.3878994419
 C         -2.6399383535        0.2093761501        0.1697358149
 H         -4.3774261887        0.2144720632       -0.6417858465
 Na        -1.5929361786       -0.8186640453        2.7380285748
  18
  -61.768708920000002       0.15153589117903310
 F         -0.8153724490       -1.7488736007       -0.3964923052
 F          0.0368388753       -1.2533258241        1.5299558599
 F          1.8745332479       -1.9548240913       -0.3443440461
 F          1.0358701980       -0.5496077506       -1.7573836700
 F         -0.4720248995        1.3538586235        1.1954305339
 F         -0.7652818315        1.1107354292       -0.9449272169
 F          1.8431790853        1.5447173975       -0.3190082918
 F          3.4863820496        0.1590203794       -0.4252631575
 F          2.3421556731        0.3372847876        1.3929029109
 O         -2.8693749944        0.2558316631        1.5982739024
 O         -3.0169430009       -0.1413377768       -0.6058621144
 C         -0.0814239998       -0.8135776921        0.2824600040
 C          1.2995149805       -0.7557728804       -0.4430530347
 C         -0.9104794291        0.5107236868        0.2704039769
 C          2.2838078686        0.3517866341        0.0698647260
 C         -2.4265908400        0.1732516286        0.4002763362
 H         -3.8214307441        0.0585006593        1.7124523182
 Na        -2.3508994303       -0.5471159957       -2.4799539321
  18
  -61.768618660000001       0.13773200936340829
 F         -1.0550690098       -1.4850983451       -0.7017020056
 F         -0.2304363398       -1.3174034719        1.2950872739
 F          1.6589663637       -1.7218266804       -0.6120449955
 F          0.8406570298       -0.1271010079       -1.8252408538
 F         -0.7015859150        1.3560155616        1.3172326164
 F         -1.0036213647        1.3795132504       -0.8372543841
 F          1.5975629716        1.7387353681       -0.1489530723
 F          3.2585687944        0.3794198601       -0.3221337886
 F          2.0279233919        0.3574787414        1.4475084142
 O         -3.0745323766        0.0295612042        1.5641015291
 O         -3.2787198532        0.2929627976       -0.6563186102
 C         -0.3223134941       -0.6873595984        0.1294854449
 C          1.0762525362       -0.5272029728       -0.5488919345
 C         -1.1434937733        0.6276745121        0.3044363807
 C          2.0336342386        0.5109788528        0.1329724528
 C         -2.6644097925        0.2922493232        0.3802418582
 H         -4.0275878696       -0.1831266148        1.6394574929
 Na        -2.2663098774        0.6480828519       -2.4073128578
  18
  -61.768286459999999        9.6909495767056250E-002
 F         -0.8641933129       -1.7644252713       -0.3926297659
 F         -0.1315701387       -1.1500344277        1.5478984486
 F          1.8149836522       -1.9781727803       -0.1080716574
 F          1.0758543446       -0.7304117524       -1.7080666512
 F         -0.4718881135        1.5171265668        0.8396785017
 F         -0.9564562798        0.8977329951       -1.1897612005
 F          1.8514066049        1.4927526882       -0.5121235350
 F          3.4594976409        0.0850922484       -0.2548718517
 F          2.1457510665        0.5305795369        1.3939506139
 O         -2.8658563371        0.7648583076        1.5646917342
 O         -3.1179700303       -0.4345428471       -0.3139776128
 C         -0.1624356083       -0.7810969898        0.2730722602
 C          1.2591917282       -0.7925963314       -0.3710326622
 C         -0.9905625440        0.5315422377        0.1191082503
 C          2.2198866584        0.3636216577        0.0805254175
 C         -2.4847092429        0.2401163818        0.4617524877
 H         -3.8049466587        0.6177365253        1.7996237595
 Na        -2.3974495891       -1.5445165051       -1.8597828184
  18
  -61.759334520000003        7.4531447643078228E-006
 F         -0.6849215067       -1.2031373669       -1.5060074311
 F         -0.1626871404       -1.8639425550        0.4914013756
 F          1.9948058434       -1.4491045726       -1.1341972028
 F          1.3583820445        0.5815848750       -1.5474438719
 F         -0.6560591489        0.5513001443        1.5339546809
 F         -0.7285182293        1.5018906495       -0.3883832136
 F          1.7527693965        1.4520601094        0.7904445933
 F          3.4234989806        0.1631998787        0.3823151960
 F          1.8827597340       -0.4832649507        1.7344226522
 O         -2.8990317115       -1.1274162564        0.3716804914
 O         -3.2820618809        1.0575453974       -0.0463930887
 C         -0.1466511732       -0.8178054556       -0.3399398057
 C          1.3456418677       -0.4105096337       -0.6190022925
 C         -1.0200853998        0.3232121531        0.2560020843
 C          2.1359459381        0.1440439802        0.6119176218
 C         -2.5948292949        0.1168674760        0.1650811125
 H         -3.8581323611       -1.3127290185        0.3521068425
 Na         0.5060732541        3.0195256639        0.1831776884
  18
  -61.756344149999997        3.1481879841634802E-007
 F         -0.6948437673       -1.4742738245       -1.3328078829
 F         -0.2822607443       -1.4529731102        0.7896682162
 F          1.9237908840       -1.7749690689       -0.6987937573
 F          1.5423422057        0.0285296204       -1.8425564271
 F         -0.6830957932        1.0112018124        1.1233493899
 F         -0.5978303998        1.5338152837       -0.9794932383
 F          1.8220059950        1.5576309228        0.3937542137
 F          3.4321414434        0.1377759302        0.3331682563
 F          1.7780426104       -0.1474163681        1.6814017110
 O         -2.9350339232       -0.1853102329        0.9099196587
 O         -3.1615317280        0.4722429714       -1.2361783988
 C         -0.1596645263       -0.7368470538       -0.3642509076
 C          1.3722723482       -0.5547027518       -0.6548966423
 C         -0.9837745576        0.5688520760       -0.1583894775
 C          2.1406571301        0.2723487874        0.4307040756
 C         -2.5369620058        0.2849848805       -0.2551202440
 H         -3.8884363013       -0.3955545051        0.9076754955
 Na         0.1447734338        0.4405837161        2.8934901277
  18
  -61.756030449999997        2.2588849858077828E-007
 F         -0.8623873652       -1.4972801778       -1.2668089117
 F         -0.3965682522       -1.7029688463        0.8434300250
 F          1.7827298337       -1.5851074447       -0.8681514809
 F          1.1285170642        0.3551712447       -1.5834333682
 F         -0.8756103596        0.9554178536        1.2707649789
 F         -1.1274483018        1.3268172235       -0.8168396355
 F          1.5636539854        1.5816535410        0.5471973336
 F          3.1888136639        0.1693394908        0.4684185833
 F          1.5569238467       -0.1407483491        1.8314783491
 O         -3.4758441967        1.1200509805        0.3927011425
 O         -3.2431581419       -1.1184268265        0.2435270019
 C         -0.3705246044       -0.8635658838       -0.1975649462
 C          1.1218758217       -0.4860183990       -0.5209118462
 C         -1.2888728512        0.3509239522        0.1220496204
 C          1.8964981364        0.2520383167        0.6222675255
 C         -2.8329725471       -0.0138279707        0.2572670235
 H         -4.4397567442        0.9940497701        0.4868905281
 Na        -0.0840841183        2.8134207655        0.2561405160
  18
  -61.755987800000000        2.1592033029690455E-007
 F         -0.9257941610       -1.5373944402       -1.2263039860
 F         -0.5003582486       -1.4523185299        0.8909929066
 F          1.6921644303       -1.8042171341       -0.6687956919
 F          1.2895732861        0.0141260655       -1.7818092972
 F         -0.8995452203        1.0273703582        1.1498700731
 F         -0.8793458592        1.4733956790       -0.9740253932
 F          1.5831497600        1.5156328133        0.4616647004
 F          3.2185752029        0.1228848175        0.3361322139
 F          1.6069963657       -0.2061011718        1.7277923703
 O         -3.1483981171       -0.1309077491        1.0720251267
 O         -3.4139740152        0.2847898174       -1.1272710756
 C         -0.3833912838       -0.7693426527       -0.2856986671
 C          1.1431329242       -0.5854171616       -0.5980631731
 C         -1.2198711923        0.5334750443       -0.1074840427
 C          1.9268200878        0.2333448833        0.4822269056
 C         -2.7648260829        0.2182480913       -0.1466059313
 H         -4.1015263740       -0.3463709134        1.0850961804
 Na        -0.5317643734        0.4041429238        3.0359069303
  18
  -61.750695720000003        7.9840263128747000E-010
 F         -1.1392131303       -1.6389221147       -0.8016016825
 F         -0.7176791132       -1.1028682358        1.2358267057
 F          1.4016708710       -1.9395815535        0.1171573268
 F          1.2225972540       -0.6676610281       -1.6370198880
 F         -0.9580948168        1.4245859638        0.8552344544
 F         -0.7373847718        1.3154909158       -1.2987166510
 F          1.6819904586        1.5626996899        0.0794508387
 F          3.1125699011       -0.0307529559        0.3235097273
 F          1.5447703148        0.2026273042        1.7576310665
 O         -3.3106535093       -0.0762554455        0.6450319044
 O         -3.4160770119        1.0103713261       -1.3274581689
 C         -0.5711886614       -0.6868874065       -0.0554693131
 C          0.9624747808       -0.7044451965       -0.3440800625
 C         -1.2700923025        0.6957834172       -0.2391649192
 C          1.8412648896        0.3219514292        0.4451273843
 C         -2.8397189079        0.5705256480       -0.3962486898
 H         -4.2841398021       -0.1415230346        0.6320489652
 Na         1.3339888331       -2.5709985280        2.0751298698
