  16
  -61.689019399999999
 F         -0.5772084147       -1.9981894751        0.0981032485
 F         -0.2771803027       -0.3401523090        1.4476898783
 F          1.8285173409       -1.6447166745       -0.3649263734
 F          1.1494725907       -0.1010798775       -1.7087793190
 F         -0.9302033848        1.3763665913       -0.8170962187
 F         -1.5700929425       -0.4450796873       -1.8331829106
 F          3.1137054598        0.8417535724       -0.2749491588
 F          2.3572697013        0.0345775623        1.5646135363
 F          1.3614145646        1.6956517953        0.6230338347
 O         -3.1693065952        1.2399207159        0.7847393538
 O         -3.4737419108       -0.9629226031        0.3096616045
 C         -0.3259968341       -0.6789538766        0.1351146569
 C          1.1438909882       -0.4783700680       -0.4224068313
 C         -1.4271133794        0.1163692919       -0.5913604846
 C          1.9869108510        0.5533545125        0.3930287747
 C         -3.0052153887        0.1373843506        0.3533910803
