  16
  -61.688876110000002
 F         -0.5358931206       -2.0671997156        0.0103396223
 F         -0.3058629856       -0.4606768591        1.4270174546
 F          1.8873215300       -1.6077458294       -0.3211948805
 F          1.1742600857       -0.1210632956       -1.7081039428
 F         -0.9105543892        1.2717999215       -0.9580805765
 F         -1.6345635565       -0.5909045905       -1.8202048044
 F          3.0340914244        0.9562282448       -0.2355330662
 F          2.2942259878        0.0987779621        1.5890297770
 F          1.2231568349        1.7060520405        0.6390023097
 O         -2.8102731464        1.2320166492        1.0224042604
 O         -3.6269628119       -0.7232734430        0.1920358353
 C         -0.3221427933       -0.7423587979        0.1035079561
 C          1.1481873617       -0.4749940079       -0.4164437140
 C         -1.4293271165        0.0427675913       -0.6274917285
 C          1.9115419860        0.6036388745        0.4145947111
 C         -2.9120829471        0.2228490763        0.3857954583
