  16
  -61.689024510000003
 F         -0.5582858440       -2.0479600056        0.0202419256
 F         -0.2960118463       -0.4402182995        1.4344203959
 F          1.8779051560       -1.6267328116       -0.3009889058
 F          1.1791227578       -0.1515952340       -1.7094372205
 F         -0.9063191367        1.3098635676       -0.9133143393
 F         -1.6102946572       -0.5376840469       -1.8285495941
 F          3.0493384683        0.9370978441       -0.2590059714
 F          2.3159588290        0.1064756793        1.5795585729
 F          1.2459800670        1.7055343258        0.6144998422
 O         -2.8994815713        1.2159697338        1.0124141353
 O         -3.6122546002       -0.7764509180        0.1822448315
 C         -0.3202436721       -0.7264155619        0.1099620847
 C          1.1534027842       -0.4884822841       -0.4121622972
 C         -1.4208626499        0.0728391001       -0.6176258660
 C          1.9322326583        0.5963996680        0.3997157621
 C         -2.9450643994        0.1972730641        0.3847013158
