  18
  -61.770031889999998       0.61401815413565397
 F         -0.9508575893       -1.5878288868       -1.0477554420
 F         -0.4303202302       -1.3317768674        1.0260116061
 F          1.6834169654       -1.8802375902       -0.5403706859
 F          1.2955421862       -0.1865086492       -1.8390666610
 F         -0.7059583858        1.2796342174        0.9408476759
 F         -1.0010180443        1.3290524868       -1.2135868109
 F          1.7790794500        1.5504577833        0.1242096275
 F          3.2891625075        0.0235203051        0.2802606449
 F          1.6273484159        0.0414544270        1.6518980268
 O         -3.4403749980        0.4195482718       -0.7972959211
 O         -2.8795482116       -0.2512735200        1.2696630738
 C         -0.3374085868       -0.7469045700       -0.2128915393
 C          1.1776582950       -0.6400029355       -0.5892461171
 C         -1.1566309927        0.5770634407       -0.1348802274
 C          2.0068182184        0.2740665190        0.3810905460
 C         -2.6399568374        0.2035314799        0.1768200867
 H         -4.3801342979        0.2018408155       -0.6286406902
 Na        -1.5828791948       -0.8150111653        2.7444920499
  18
  -61.768709960000002       0.15158779891941496
 F         -0.8103794608       -1.7559042512       -0.3797477223
 F          0.0464134645       -1.2432196539        1.5403520164
 F          1.8801580561       -1.9524649454       -0.3339194692
 F          1.0328386434       -0.5617623462       -1.7554126847
 F         -0.4716963828        1.3584209894        1.1902132987
 F         -0.7686486948        1.1013509251       -0.9482684882
 F          1.8370928954        1.5473848459       -0.3338620570
 F          3.4845488999        0.1667178187       -0.4381774316
 F          2.3472428073        0.3524244026        1.3835981387
 O         -2.8707420984        0.2726131130        1.6010557722
 O         -3.0148033956       -0.1606416635       -0.5960371996
 C         -0.0777703188       -0.8129905145        0.2899228659
 C          1.3007250516       -0.7560660322       -0.4405464705
 C         -0.9105613049        0.5089161816        0.2711626174
 C          2.2832418889        0.3584180608        0.0609124163
 C         -2.4258783131        0.1712061596        0.4053460799
 H         -3.8230479502        0.0750770109        1.7149483851
 Na        -2.3546563821       -0.5881902254       -2.4694221471
  18
  -61.768618660000001       0.13762764295330493
 F         -1.0532285671       -1.4904063470       -0.6931599551
 F         -0.2232914809       -1.3131855873        1.3006068217
 F          1.6616614217       -1.7197870858       -0.6104583352
 F          0.8357294963       -0.1316902631       -1.8271793028
 F         -0.7013165465        1.3590701429        1.3142277446
 F         -1.0096006175        1.3738071652       -0.8394514113
 F          1.5926109231        1.7422974228       -0.1600062641
 F          3.2566323491        0.3866426221       -0.3329260848
 F          2.0311272167        0.3680947436        1.4403171331
 O         -3.0700827826        0.0273690220        1.5728283422
 O         -3.2813463207        0.2820784829       -0.6479381950
 C         -0.3201562960       -0.6877041057        0.1329532470
 C          1.0760324446       -0.5264479106       -0.5500446078
 C         -1.1442395837        0.6258429136        0.3054084426
 C          2.0326710931        0.5167264482        0.1252102817
 C         -2.6640531867        0.2867623115        0.3868364883
 H         -4.0223627528       -0.1875017223        1.6517174659
 Na        -2.2749353546        0.6333355956       -2.4031505565
  18
  -61.768285700000000        9.6758215637708547E-002
 F         -0.9364317720       -1.7493267049       -0.4247416674
 F         -0.1956545367       -1.1309994248        1.5117589549
 F          1.7433202646       -1.9590635632       -0.1566515348
 F          0.9951344368       -0.7092273326       -1.7507202139
 F         -0.5495284453        1.5326243312        0.8074955233
 F         -1.0302990484        0.9161928194       -1.2237986190
 F          1.7752766843        1.5116645554       -0.5599383623
 F          3.3857563897        0.1056924456       -0.3025661005
 F          2.0742918344        0.5533148541        1.3474934374
 O         -2.9366260587        0.7489932121        1.5391717944
 O         -3.1905549327       -0.4147727369       -0.3612020021
 C         -0.2333159438       -0.7642224364        0.2365448992
 C          1.1851984945       -0.7735074786       -0.4145705492
 C         -1.0646860237        0.5469309204        0.0845279014
 C          2.1463882116        0.3839111388        0.0341023301
 C         -2.5577204167        0.2477636723        0.4247636632
 H         -3.8746812572        0.5949149775        1.7739968774
 Na        -2.4592267226       -1.5111181609       -1.9116712787
  18
  -61.759332489999998        7.4315160825847276E-006
 F         -0.6871034477       -1.2092735377       -1.5000075459
 F         -0.1575951048       -1.8597035746        0.4988814995
 F          1.9929440045       -1.4449978539       -1.1390602822
 F          1.3504225047        0.5831886382       -1.5527417397
 F         -0.6517606210        0.5622691764        1.5309409273
 F         -0.7387248776        1.4997750195       -0.3969067686
 F          1.7589524449        1.4607127261        0.7756515249
 F          3.4249616304        0.1623818956        0.3742280783
 F          1.8817948022       -0.4693007054        1.7308911488
 O         -2.8899580335       -1.1388634113        0.3843201514
 O         -3.2906327850        1.0429785893       -0.0337719839
 C         -0.1465016653       -0.8173294451       -0.3370240555
 C          1.3436349746       -0.4076594618       -0.6225229350
 C         -1.0215805781        0.3239483173        0.2559698981
 C          2.1372810905        0.1506142872        0.6044944193
 C         -2.5955031064        0.1076336979        0.1752555702
 H         -3.8479148376       -1.3301738929        0.3711945771
 Na         0.4964056449        3.0209287097        0.1623330982
  18
  -61.756344100000000        3.1456360059925031E-007
 F         -0.6949617895       -1.4804499561       -1.3259305942
 F         -0.2762886430       -1.4510819010        0.7952488915
 F          1.9262721434       -1.7723905790       -0.6986498224
 F          1.5368903482        0.0264290783       -1.8471088961
 F         -0.6823850904        1.0131461094        1.1219766701
 F         -0.6045670059        1.5290484767       -0.9828139716
 F          1.8191427256        1.5634767521        0.3833719034
 F          3.4327334893        0.1475361459        0.3226835590
 F          1.7833332819       -0.1374566337        1.6766958346
 O         -2.9319702696       -0.1894678907        0.9191144906
 O         -3.1662427801        0.4599323056       -1.2286368061
 C         -0.1588505417       -0.7384725955       -0.3613804433
 C          1.3717690251       -0.5534048312       -0.6570805678
 C         -0.9856676362        0.5658148579       -0.1574261857
 C          2.1411922904        0.2791272090        0.4235770946
 C         -2.5384070617        0.2777040729       -0.2487140147
 H         -3.8848395756       -0.4021201227        0.9203741989
 Na         0.1519161110        0.4507167440        2.8915598009
  18
  -61.756030459999998        2.2571972014576159E-007
 F         -0.8622732470       -1.5037078105       -1.2592787249
 F         -0.3897650796       -1.7011410515        0.8502586440
 F          1.7842201462       -1.5834626717       -0.8681110090
 F          1.1229845628        0.3527552109       -1.5878926116
 F         -0.8743057531        0.9575187179        1.2700400380
 F         -1.1332530916        1.3211493098       -0.8180644919
 F          1.5612238302        1.5874209234        0.5373190457
 F          3.1897161631        0.1789594033        0.4585658115
 F          1.5625560071       -0.1306685396        1.8273758213
 O         -3.4775155281        1.1125229688        0.3991535401
 O         -3.2395466455       -1.1258497740        0.2569005947
 C         -0.3688993557       -0.8651629431       -0.1936050119
 C          1.1215863844       -0.4849168960       -0.5225732047
 C         -1.2894007831        0.3480553981        0.1246098832
 C          1.8976449082        0.2589088178        0.6158819689
 C         -2.8321555213       -0.0201696424        0.2656659129
 H         -4.4408205871        0.9843954832        0.4966287233
 Na        -0.0904918809        2.8141013142        0.2467812568
  18
  -61.755987800000000        2.1575671669796269E-007
 F         -0.9254306195       -1.5437447284       -1.2185811904
 F         -0.4940832661       -1.4506476863        0.8971806625
 F          1.6947984401       -1.8021147437       -0.6678121174
 F          1.2843724691        0.0115471553       -1.7855921409
 F         -0.8988165478        1.0288602613        1.1490982990
 F         -0.8859002419        1.4679636134       -0.9762963213
 F          1.5806393136        1.5211356705        0.4520918694
 F          3.2192157589        0.1321194388        0.3263754966
 F          1.6125119820       -0.1963659858        1.7237717531
 O         -3.1449352243       -0.1353565779        1.0815752034
 O         -3.4179310954        0.2724522758       -1.1182878362
 C         -0.3822578000       -0.7712414168       -0.2820746262
 C          1.1428834423       -0.5844813452       -0.5994711487
 C         -1.2215244172        0.5300332521       -0.1056968345
 C          1.9276151703        0.2397962775        0.4758546544
 C         -2.7657789383        0.2107705277       -0.1393004118
 H         -4.0974720107       -0.3531841640        1.0981137709
 Na        -0.5240715207        0.4127090876        3.0360888125
  18
  -61.750695720000003        7.9779764180950061E-010
 F         -1.1372628406       -1.6444951580       -0.7934476233
 F         -0.7114010291       -1.1012967777        1.2411730316
 F          1.4070982680       -1.9357668314        0.1197663260
 F          1.2198525214       -0.6703806598       -1.6382832500
 F         -0.9587995225        1.4246445555        0.8533355342
 F         -0.7446125782        1.3090813335       -1.3009128851
 F          1.6785583308        1.5670526399        0.0686816289
 F          3.1134294020       -0.0221715502        0.3153261170
 F          1.5485452038        0.2130187156        1.7523702878
 O         -3.3086603653       -0.0812490723        0.6560533553
 O         -3.4223585284        0.9966003861       -1.3207982477
 C         -0.5695852153       -0.6888122522       -0.0517667032
 C          0.9633350447       -0.7033102122       -0.3445775498
 C         -1.2724613680        0.6915293168       -0.2376695563
 C          1.8415729925        0.3280707960        0.4387510855
 C         -2.8423305796        0.5621158124       -0.3893368439
 H         -4.2820346011       -0.1488043113        0.6463241469
 Na         1.3473326681       -2.5605368011        2.0781741788
