  16
  -61.689025540000003
 F         -0.5585381687       -2.0461017110        0.0261246423
 F         -0.2963605564       -0.4341862313        1.4353905272
 F          1.8772245831       -1.6268024251       -0.2987281885
 F          1.1790942388       -0.1525228342       -1.7084286049
 F         -0.9068365823        1.3095844961       -0.9153982423
 F         -1.6077690269       -0.5401847114       -1.8284698442
 F          3.0521344924        0.9339687098       -0.2586374578
 F          2.3146455921        0.1094218129        1.5810265992
 F          1.2489914061        1.7080678669        0.6103303776
 O         -2.8964156232        1.2115081481        1.0166594564
 O         -3.6190707439       -0.7702366550        0.1695595526
 C         -0.3203062742       -0.7242758438        0.1119195879
 C          1.1535031197       -0.4881118655       -0.4108611770
 C         -1.4208079973        0.0725833134       -0.6184752568
 C          1.9333780822        0.5970973692        0.3994859885
 C         -2.9463716790        0.1978657082        0.3806797024
