  16
  -61.688868110000001
 F         -0.5369877858       -2.0647685366        0.0168437551
 F         -0.3061511382       -0.4539284215        1.4282847792
 F          1.8860332222       -1.6083040886       -0.3179567753
 F          1.1743521164       -0.1231240943       -1.7071790824
 F         -0.9109185307        1.2726594207       -0.9585146739
 F         -1.6303797207       -0.5916505227       -1.8208263276
 F          3.0374770878        0.9518039412       -0.2361536062
 F          2.2930395621        0.1023475807        1.5902129731
 F          1.2273836704        1.7092632676        0.6334903638
 O         -2.8094822042        1.2262045617        1.0276122211
 O         -3.6330233406       -0.7186050415        0.1781036878
 C         -0.3224507388       -0.7396785209        0.1058188814
 C          1.1481512768       -0.4748925183       -0.4149756936
 C         -1.4291969190        0.0433005768       -0.6280653445
 C          1.9131227872        0.6042735891        0.4137012990
 C         -2.9144744822        0.2227739540        0.3817812053
