  16
  -61.689019119999998
 F         -0.5779641112       -1.9981445756        0.1007482740
 F         -0.2769988890       -0.3384295945        1.4480616454
 F          1.8276810790       -1.6459751067       -0.3636482833
 F          1.1486316691       -0.1038112730       -1.7091874326
 F         -0.9303127045        1.3753171959       -0.8187318758
 F         -1.5710826511       -0.4472706235       -1.8322218180
 F          3.1136808881        0.8401765707       -0.2772058654
 F          2.3575837073        0.0355899569        1.5636297033
 F          1.3619542773        1.6957819370        0.6202539587
 O         -3.1689492325        1.2416433694        0.7839898621
 O         -3.4741087427       -0.9617738747        0.3120244999
 C         -0.3263658785       -0.6789333534        0.1359468032
 C          1.1433884238       -0.4794941197       -0.4223431566
 C         -1.4275078097        0.1157580461       -0.5911802601
 C          1.9870099136        0.5529910427        0.3915046035
 C         -3.0052945304        0.1384749196        0.3540969677
