  16
  -61.688871429999999
 F         -0.5362785430       -2.0679449289        0.0112922834
 F         -0.3060500760       -0.4607276577        1.4271229480
 F          1.8870840352       -1.6085524186       -0.3199422831
 F          1.1737673886       -0.1235835466       -1.7085461661
 F         -0.9105240961        1.2698729656       -0.9605197613
 F         -1.6364886497       -0.5936974369       -1.8190337700
 F          3.0340282453        0.9548319073       -0.2367682802
 F          2.2929369739        0.1005246215        1.5887207486
 F          1.2228815367        1.7066180154        0.6356219060
 O         -2.8080934842        1.2349674735        1.0217137467
 O         -3.6270584374       -0.7213797202        0.1959099021
 C         -0.3224967418       -0.7430498996        0.1037692750
 C          1.1477700086       -0.4760146329       -0.4164653670
 C         -1.4297895689        0.0417086387       -0.6274969654
 C          1.9110056210        0.6036413094        0.4133219027
 C         -2.9113488038        0.2246858273        0.3870375068
