  16
  -61.689022190000003
 F         -0.5587913281       -2.0485756033        0.0215641465
 F         -0.2961230780       -0.4398702204        1.4345814501
 F          1.8775974478       -1.6276429025       -0.2996568522
 F          1.1785832096       -0.1542814961       -1.7098423566
 F         -0.9061777343        1.3080983863       -0.9157238979
 F         -1.6120480422       -0.5404309161       -1.8274674837
 F          3.0490593033        0.9360083748       -0.2605709238
 F          2.3152445843        0.1079548124        1.5789738101
 F          1.2456021430        1.7058049219        0.6115512139
 O         -2.8976147083        1.2188089379        1.0117660615
 O         -3.6124517686       -0.7746448383        0.1858232071
 C         -0.3205842376       -0.7269883016        0.1103168169
 C          1.1529949531       -0.4895778299       -0.4121553233
 C         -1.4212618029        0.0718754035       -0.6176627795
 C          1.9317821891        0.5963187253        0.3984013410
 C         -2.9444657218        0.1990430633        0.3858391961
