  16
  -61.688993549999999
 F         -0.5575235439       -2.0558818966        0.0052412809
 F         -0.3012935868       -0.4575191926        1.4310494096
 F          1.8827226993       -1.6252271078       -0.2914627867
 F          1.1834024993       -0.1597434365       -1.7095663012
 F         -0.9025007674        1.3012404208       -0.9246867409
 F         -1.6177646169       -0.5466395051       -1.8297600931
 F          3.0369198662        0.9506438718       -0.2568856414
 F          2.3095267795        0.1130981649        1.5809875310
 F          1.2272625976        1.7039351223        0.6167564100
 O         -2.8814425839        1.2215144751        1.0171547459
 O         -3.6183395738       -0.7614065122        0.1848815733
 C         -0.3214934569       -0.7345045739        0.1044767302
 C          1.1530910884       -0.4910061100       -0.4109483248
 C         -1.4211520200        0.0676334138       -0.6218382597
 C          1.9223978272        0.6006259106        0.4011769551
 C         -2.9404765522        0.2049748842        0.3870744339
