  16
  -61.689026470000002
 F         -0.5598482860       -2.0467251470        0.0238486277
 F         -0.2963481508       -0.4366334105        1.4351169008
 F          1.8761371648       -1.6286766424       -0.3002721498
 F          1.1790489218       -0.1527149835       -1.7087191711
 F         -0.9058527125        1.3106091885       -0.9132866048
 F         -1.6089267444       -0.5372868531       -1.8286484045
 F          3.0521036507        0.9320823367       -0.2582300880
 F          2.3154347294        0.1052473095        1.5806987770
 F          1.2496113036        1.7054179706        0.6127483168
 O         -2.9008485387        1.2168809523        1.0108485546
 O         -3.6131020015       -0.7753080948        0.1796622648
 C         -0.3207261587       -0.7252224691        0.1111999161
 C          1.1531792457       -0.4894614467       -0.4114052925
 C         -1.4206702684        0.0736609681       -0.6177475462
 C          1.9337117514        0.5945430158        0.3999681487
 C         -2.9459537401        0.1982590918        0.3829842930
