  16
  -61.688877230000003
 F         -0.5373616171       -2.0658680664        0.0142802566
 F         -0.3062540986       -0.4566361711        1.4277136737
 F          1.8855089915       -1.6096438956       -0.3209909783
 F          1.1740747682       -0.1216336009       -1.7073823843
 F         -0.9104455773        1.2724771854       -0.9582816253
 F         -1.6331394157       -0.5908643587       -1.8203309043
 F          3.0372897817        0.9507986150       -0.2345147659
 F          2.2935732113        0.0973403853        1.5903092444
 F          1.2272767352        1.7060792422        0.6372354957
 O         -2.8117942264        1.2328474084        1.0208233860
 O         -3.6279592780       -0.7222930587        0.1895431146
 C         -0.3226316542       -0.7410029223        0.1047827185
 C          1.1479724572       -0.4758015844       -0.4157632045
 C         -1.4292487385        0.0434566441       -0.6277102018
 C          1.9132420309        0.6017036207        0.4149343607
 C         -2.9131532040        0.2237123432        0.3841183568
