  16
  -61.689027869999997
 F         -0.5560210657       -2.0465189746        0.0276890024
 F         -0.2940636042       -0.4335109659        1.4358852694
 F          1.8787584246       -1.6248055274       -0.3001481343
 F          1.1777133241       -0.1517871984       -1.7097361369
 F         -0.9094629439        1.3089250004       -0.9138262523
 F         -1.6085457464       -0.5415832789       -1.8269762104
 F          3.0507591579        0.9376149375       -0.2625907168
 F          2.3169031089        0.1125068541        1.5782404128
 F          1.2478687095        1.7096160599        0.6087418008
 O         -2.9020248384        1.2109702714        1.0135274096
 O         -3.6131028086       -0.7804509438        0.1795143245
 C         -0.3191848175       -0.7244251692        0.1125251900
 C          1.1537936738       -0.4869319817       -0.4119716896
 C         -1.4212944345        0.0710935255       -0.6168177450
 C          1.9334333779        0.5994281655        0.3971017848
 C         -2.9464929299        0.1932219302        0.3841258357
